data_findsym-STRUC-1
                                        
_symmetry_space_group_name_H-M 'P 1'    
_symmetry_Int_Tables_number 1           
                                        
_cell_length_a       5.14400            
_cell_length_b       5.72600            
_cell_length_c       5.12600            
_cell_angle_alpha  102.50300            
_cell_angle_beta    63.88800            
_cell_angle_gamma  116.40000            
                                        
loop_                                   
_atom_site_label                        
_atom_site_type_symbol                  
_atom_site_fract_x                      
_atom_site_fract_y                      
_atom_site_fract_z                      
_atom_site_occupancy                    
  Si   Si  -0.2890  -0.0517   0.0074   1.0000
  Si   Si   0.2196  -0.0533  -0.0101   1.0000
  Si   Si  -0.0265   0.4474   0.4786   1.0000
  Si   Si   0.4757   0.4464  -0.4881   1.0000
  Si   Si  -0.2699  -0.0523   0.4961   1.0000
  Si   Si   0.2235  -0.0522   0.4959   1.0000
  Si   Si   0.4608   0.4478   0.0231   1.0000
  Si   Si  -0.0237   0.4474  -0.0304   1.0000
data_findsym-STRUC-2
                                        
_symmetry_space_group_name_H-M 'P -1'   
_symmetry_Int_Tables_number 2           
                                        
_cell_length_a       3.44700            
_cell_length_b       7.01900            
_cell_length_c       7.15100            
_cell_angle_alpha   61.89100            
_cell_angle_beta    83.47900            
_cell_angle_gamma   90.49700            
                                        
loop_                                   
_atom_site_label                        
_atom_site_type_symbol                  
_atom_site_fract_x                      
_atom_site_fract_y                      
_atom_site_fract_z                      
_atom_site_occupancy                    
  Si   Si  -0.4772   0.2014   0.1815   1.0000
  Si   Si  -0.4625  -0.1792   0.3726   1.0000
  Si   Si  -0.4732  -0.3857   0.1896   1.0000
  Si   Si  -0.0006  -0.3311  -0.3429   1.0000
data_findsym-STRUC-3
                                        
_symmetry_space_group_name_H-M 'P 1 21/m 1'
_symmetry_Int_Tables_number 11          
                                        
_cell_length_a       5.25300            
_cell_length_b       4.92300            
_cell_length_c       5.34000            
_cell_angle_alpha   90.00000            
_cell_angle_beta    61.34400            
_cell_angle_gamma   90.00000            
                                        
loop_                                   
_atom_site_label                        
_atom_site_type_symbol                  
_atom_site_fract_x                      
_atom_site_fract_y                      
_atom_site_fract_z                      
_atom_site_occupancy                    
  Si   Si  -0.0200   0.2500   0.0080   1.0000
  Si   Si   0.0176   0.2500  -0.4672   1.0000
  Si   Si  -0.4589   0.2500   0.4708   1.0000
  Si   Si   0.4565   0.2500  -0.0115   1.0000
data_findsym-STRUC-4
                                        
_symmetry_space_group_name_H-M 'P -1'   
_symmetry_Int_Tables_number 2           
                                        
_cell_length_a       2.53450            
_cell_length_b       5.44589            
_cell_length_c       5.02336            
_cell_angle_alpha   66.73553            
_cell_angle_beta   103.54334            
_cell_angle_gamma   90.47109            
                                        
loop_                                   
_atom_site_label                        
_atom_site_type_symbol                  
_atom_site_fract_x                      
_atom_site_fract_y                      
_atom_site_fract_z                      
_atom_site_occupancy                    
  Si   Si   0.3867  -0.2423  -0.3957   1.0000
  Si   Si  -0.4311  -0.2534   0.1326   1.0000
data_findsym-STRUC-5
                                        
_symmetry_space_group_name_H-M 'P 1'    
_symmetry_Int_Tables_number 1           
                                        
_cell_length_a       5.51400            
_cell_length_b       5.73400            
_cell_length_c       5.09600            
_cell_angle_alpha  116.29600            
_cell_angle_beta    93.71300            
_cell_angle_gamma   77.63000            
                                        
loop_                                   
_atom_site_label                        
_atom_site_type_symbol                  
_atom_site_fract_x                      
_atom_site_fract_y                      
_atom_site_fract_z                      
_atom_site_occupancy                    
  Si   Si   0.0956  -0.2445   0.3832   1.0000
  Si   Si  -0.1081   0.2544  -0.4108   1.0000
  Si   Si  -0.3026  -0.3462   0.3228   1.0000
  Si   Si   0.2236   0.4464  -0.1253   1.0000
  Si   Si   0.0507   0.0163   0.0866   1.0000
  Si   Si   0.4906  -0.0004   0.1651   1.0000
  Si   Si   0.4324  -0.3315  -0.3172   1.0000
  Si   Si  -0.3526   0.2386  -0.0467   1.0000
data_findsym-STRUC-6
                                        
_symmetry_space_group_name_H-M 'P -1'   
_symmetry_Int_Tables_number 2           
                                        
_cell_length_a       3.45180            
_cell_length_b       5.25600            
_cell_length_c       3.70782            
_cell_angle_alpha  101.11735            
_cell_angle_beta    89.03221            
_cell_angle_gamma   74.57123            
                                        
loop_                                   
_atom_site_label                        
_atom_site_type_symbol                  
_atom_site_fract_x                      
_atom_site_fract_y                      
_atom_site_fract_z                      
_atom_site_occupancy                    
  Si   Si   0.3811   0.2530  -0.3802   1.0000
data_findsym-STRUC-7
                                        
_symmetry_space_group_name_H-M 'C 2/m 2/m 2/m'
_symmetry_Int_Tables_number 65          
                                        
_cell_length_a       4.76900            
_cell_length_b       2.55850            
_cell_length_c       2.46550            
_cell_angle_alpha   90.00000            
_cell_angle_beta    90.00000            
_cell_angle_gamma   90.00000            
                                        
loop_                                   
_atom_site_label                        
_atom_site_type_symbol                  
_atom_site_fract_x                      
_atom_site_fract_y                      
_atom_site_fract_z                      
_atom_site_occupancy                    
  Si   Si   0.5000   0.0000   0.5000   1.0000
data_findsym-STRUC-8
_symmetry_space_group_name_H-M "P 1" 
_symmetry_Int_Tables_number 1

_cell_length_a  4.933
_cell_length_b  5.107
_cell_length_c  5.876
_cell_angle_alpha 66.247
_cell_angle_beta  65.743
_cell_angle_gamma 90.008

loop_
_atom_site_label
_atom_site_type_symbol
_atom_site_fract_x
_atom_site_fract_y
_atom_site_fract_z
__atom_site_occupancy
data_findsym-STRUC-9
                                        
_symmetry_space_group_name_H-M 'P 1'    
_symmetry_Int_Tables_number 1           
                                        
_cell_length_a       5.48700            
_cell_length_b       5.71100            
_cell_length_c       5.46400            
_cell_angle_alpha   80.67700            
_cell_angle_beta    90.99100            
_cell_angle_gamma   90.46800            
                                        
loop_                                   
_atom_site_label                        
_atom_site_type_symbol                  
_atom_site_fract_x                      
_atom_site_fract_y                      
_atom_site_fract_z                      
_atom_site_occupancy                    
  Si   Si   0.1799   0.3948  -0.2784   1.0000
  Si   Si  -0.2296   0.2050   0.1824   1.0000
  Si   Si   0.2982  -0.2796   0.4100   1.0000
  Si   Si  -0.3243  -0.3960   0.2642   1.0000
  Si   Si   0.2794  -0.2235  -0.1599   1.0000
  Si   Si  -0.2117   0.2845  -0.4039   1.0000
  Si   Si  -0.0073  -0.1307   0.1230   1.0000
  Si   Si   0.4895   0.1298  -0.1218   1.0000
data_findsym-STRUC-10
                                        
_symmetry_space_group_name_H-M 'P -1'   
_symmetry_Int_Tables_number 2           
                                        
_cell_length_a       2.60553            
_cell_length_b       4.04400            
_cell_length_c       2.91100            
_cell_angle_alpha   81.37800            
_cell_angle_beta    74.99472            
_cell_angle_gamma   81.74782            
                                        
loop_                                   
_atom_site_label                        
_atom_site_type_symbol                  
_atom_site_fract_x                      
_atom_site_fract_y                      
_atom_site_fract_z                      
_atom_site_occupancy                    
  Si   Si   0.2641   0.2523   0.2534   1.0000
data_findsym-STRUC-11
                                        
_symmetry_space_group_name_H-M 'P 1'    
_symmetry_Int_Tables_number 1           
                                        
_cell_length_a       5.87400            
_cell_length_b       5.05400            
_cell_length_c       5.09400            
_cell_angle_alpha  119.71200            
_cell_angle_beta   113.44900            
_cell_angle_gamma   80.14400            
                                        
loop_                                   
_atom_site_label                        
_atom_site_type_symbol                  
_atom_site_fract_x                      
_atom_site_fract_y                      
_atom_site_fract_z                      
_atom_site_occupancy                    
  Si   Si  -0.2619   0.4729   0.1941   1.0000
  Si   Si   0.2516  -0.4904  -0.0353   1.0000
  Si   Si  -0.2616  -0.4941  -0.2874   1.0000
  Si   Si   0.2558  -0.4892   0.4697   1.0000
  Si   Si  -0.0090   0.0004   0.0957   1.0000
  Si   Si   0.4218   0.0175   0.0338   1.0000
  Si   Si  -0.4189  -0.0182  -0.4314   1.0000
  Si   Si   0.0117   0.0005  -0.4202   1.0000
data_findsym-STRUC-12
                                        
_symmetry_space_group_name_H-M 'P -1'   
_symmetry_Int_Tables_number 2           
                                        
_cell_length_a       2.51083            
_cell_length_b       5.46300            
_cell_length_c       5.05700            
_cell_angle_alpha   68.44700            
_cell_angle_beta    87.52675            
_cell_angle_gamma   95.29980            
                                        
loop_                                   
_atom_site_label                        
_atom_site_type_symbol                  
_atom_site_fract_x                      
_atom_site_fract_y                      
_atom_site_fract_z                      
_atom_site_occupancy                    
  Si   Si   0.4934  -0.2496   0.1220   1.0000
data_findsym-STRUC-13
                                        
_symmetry_space_group_name_H-M 'P 1'    
_symmetry_Int_Tables_number 1           
                                        
_cell_length_a       3.76500            
_cell_length_b       6.10000            
_cell_length_c       5.86800            
_cell_angle_alpha   93.21800            
_cell_angle_beta   105.56000            
_cell_angle_gamma   86.92300            
                                        
loop_                                   
_atom_site_label                        
_atom_site_type_symbol                  
_atom_site_fract_x                      
_atom_site_fract_y                      
_atom_site_fract_z                      
_atom_site_occupancy                    
  Si   Si  -0.0856  -0.2689  -0.1625   1.0000
  Si   Si  -0.1039   0.2890   0.1735   1.0000
  Si   Si   0.0472   0.1365  -0.1966   1.0000
  Si   Si  -0.2476  -0.1189   0.2053   1.0000
  Si   Si   0.3603  -0.4249   0.2010   1.0000
  Si   Si   0.4553   0.4327  -0.1999   1.0000
  Si   Si  -0.4872   0.1769   0.4610   1.0000
  Si   Si   0.2832  -0.1807  -0.4544   1.0000
data_findsym-STRUC-14
_symmetry_space_group_name_H-M "P 1" 
_symmetry_Int_Tables_number 1

_cell_length_a  5.075
_cell_length_b  4.982
_cell_length_c  5.082
_cell_angle_alpha 91.651
_cell_angle_beta  97.429
_cell_angle_gamma 93.480

loop_
_atom_site_label
_atom_site_type_symbol
_atom_site_fract_x
_atom_site_fract_y
_atom_site_fract_z
__atom_site_occupancy
data_findsym-STRUC-15
                                        
_symmetry_space_group_name_H-M 'P -1'   
_symmetry_Int_Tables_number 2           
                                        
_cell_length_a       6.07800            
_cell_length_b       6.03000            
_cell_length_c       5.28400            
_cell_angle_alpha   71.35400            
_cell_angle_beta   110.61700            
_cell_angle_gamma   83.54100            
                                        
loop_                                   
_atom_site_label                        
_atom_site_type_symbol                  
_atom_site_fract_x                      
_atom_site_fract_y                      
_atom_site_fract_z                      
_atom_site_occupancy                    
  Si   Si  -0.3017   0.0307  -0.4187   1.0000
  Si   Si   0.3045  -0.0312  -0.0963   1.0000
  Si   Si  -0.0341   0.3042   0.0833   1.0000
  Si   Si   0.0342  -0.3077   0.4005   1.0000
data_findsym-STRUC-16
_symmetry_space_group_name_H-M "P 1" 
_symmetry_Int_Tables_number 1

_cell_length_a  5.720
_cell_length_b  5.720
_cell_length_c  5.721
_cell_angle_alpha 69.003
_cell_angle_beta  108.653
_cell_angle_gamma 71.316

loop_
_atom_site_label
_atom_site_type_symbol
_atom_site_fract_x
_atom_site_fract_y
_atom_site_fract_z
__atom_site_occupancy
data_findsym-STRUC-17
                                        
_symmetry_space_group_name_H-M 'C 2/m 2/m 2/m'
_symmetry_Int_Tables_number 65          
                                        
_cell_length_a       9.22934            
_cell_length_b       9.48742            
_cell_length_c       3.91900            
_cell_angle_alpha   90.00000            
_cell_angle_beta    90.00000            
_cell_angle_gamma   90.00000            
                                        
loop_                                   
_atom_site_label                        
_atom_site_type_symbol                  
_atom_site_fract_x                      
_atom_site_fract_y                      
_atom_site_fract_z                      
_atom_site_occupancy                    
  Si   Si   0.0000  -0.1819   0.0000   1.0000
  Si   Si   0.1789   0.0000   0.0000   1.0000
  Si   Si   0.0000  -0.3191   0.5000   1.0000
  Si   Si   0.3200   0.0000   0.5000   1.0000
data_findsym-STRUC-18
                                        
_symmetry_space_group_name_H-M 'R -3 (hexagonal axes)'
_symmetry_Int_Tables_number 148         
                                        
_cell_length_a       9.45143            
_cell_length_b       9.45143            
_cell_length_c       5.63000            
_cell_angle_alpha   90.00000            
_cell_angle_beta    90.00000            
_cell_angle_gamma  120.00000            
                                        
loop_                                   
_atom_site_label                        
_atom_site_type_symbol                  
_atom_site_fract_x                      
_atom_site_fract_y                      
_atom_site_fract_z                      
_atom_site_occupancy                    
  Si   Si  -0.2988  -0.4005   0.0808   1.0000
  Si   Si   0.0000   0.0000  -0.2180   1.0000
data_findsym-STRUC-19
                                        
_symmetry_space_group_name_H-M 'P 1'    
_symmetry_Int_Tables_number 1           
                                        
_cell_length_a       5.84800            
_cell_length_b       4.92200            
_cell_length_c       4.81100            
_cell_angle_alpha   75.70900            
_cell_angle_beta   111.56800            
_cell_angle_gamma   92.03100            
                                        
loop_                                   
_atom_site_label                        
_atom_site_type_symbol                  
_atom_site_fract_x                      
_atom_site_fract_y                      
_atom_site_fract_z                      
_atom_site_occupancy                    
  Si   Si   0.3994  -0.3319  -0.1246   1.0000
  Si   Si  -0.2456   0.3196   0.1900   1.0000
  Si   Si   0.1403   0.1413  -0.2477   1.0000
  Si   Si   0.2841   0.2764   0.2956   1.0000
  Si   Si  -0.2975   0.1330  -0.2670   1.0000
  Si   Si  -0.0011  -0.2680   0.1474   1.0000
  Si   Si  -0.0862  -0.3796  -0.3560   1.0000
  Si   Si   0.4640  -0.2404   0.3803   1.0000
data_findsym-STRUC-20
                                        
_symmetry_space_group_name_H-M 'P 1'    
_symmetry_Int_Tables_number 1           
                                        
_cell_length_a       7.90600            
_cell_length_b       5.35300            
_cell_length_c       4.12100            
_cell_angle_alpha   69.74600            
_cell_angle_beta    78.42600            
_cell_angle_gamma  100.91000            
                                        
loop_                                   
_atom_site_label                        
_atom_site_type_symbol                  
_atom_site_fract_x                      
_atom_site_fract_y                      
_atom_site_fract_z                      
_atom_site_occupancy                    
  Si   Si   0.0082   0.0056  -0.3539   1.0000
  Si   Si  -0.4926   0.4911   0.1606   1.0000
  Si   Si  -0.4248   0.0709   0.4635   1.0000
  Si   Si   0.0838  -0.4138  -0.0773   1.0000
  Si   Si  -0.0736   0.4327  -0.4502   1.0000
  Si   Si   0.4215  -0.0849   0.0907   1.0000
  Si   Si   0.2440   0.2365   0.0929   1.0000
  Si   Si  -0.2566  -0.2679  -0.3921   1.0000
data_findsym-STRUC-21
                                        
_symmetry_space_group_name_H-M 'P 1 2/m 1'
_symmetry_Int_Tables_number 10          
                                        
_cell_length_a       4.53290            
_cell_length_b       2.46200            
_cell_length_c       2.70618            
_cell_angle_alpha   90.00000            
_cell_angle_beta    87.28443            
_cell_angle_gamma   90.00000            
                                        
loop_                                   
_atom_site_label                        
_atom_site_type_symbol                  
_atom_site_fract_x                      
_atom_site_fract_y                      
_atom_site_fract_z                      
_atom_site_occupancy                    
  Si   Si  -0.2508   0.5000   0.2376   1.0000
data_findsym-STRUC-22
                                        
_symmetry_space_group_name_H-M 'P 1'    
_symmetry_Int_Tables_number 1           
                                        
_cell_length_a       4.19400            
_cell_length_b       7.64000            
_cell_length_c       5.51500            
_cell_angle_alpha   78.88500            
_cell_angle_beta    87.06800            
_cell_angle_gamma   83.79900            
                                        
loop_                                   
_atom_site_label                        
_atom_site_type_symbol                  
_atom_site_fract_x                      
_atom_site_fract_y                      
_atom_site_fract_z                      
_atom_site_occupancy                    
  Si   Si   0.0219   0.0770   0.2814   1.0000
  Si   Si   0.0783  -0.4795  -0.3497   1.0000
  Si   Si   0.3812   0.0758  -0.0709   1.0000
  Si   Si  -0.4290  -0.4655  -0.1289   1.0000
  Si   Si   0.2495   0.2397  -0.4637   1.0000
  Si   Si  -0.4371  -0.2265   0.0840   1.0000
  Si   Si  -0.4256   0.2675   0.1680   1.0000
  Si   Si   0.0546  -0.2385   0.3108   1.0000
data_findsym-STRUC-23
                                        
_symmetry_space_group_name_H-M 'P 1'    
_symmetry_Int_Tables_number 1           
                                        
_cell_length_a       6.18300            
_cell_length_b       6.17600            
_cell_length_c       3.88900            
_cell_angle_alpha   98.61100            
_cell_angle_beta    82.90100            
_cell_angle_gamma   71.92600            
                                        
loop_                                   
_atom_site_label                        
_atom_site_type_symbol                  
_atom_site_fract_x                      
_atom_site_fract_y                      
_atom_site_fract_z                      
_atom_site_occupancy                    
  Si   Si  -0.0707  -0.3645  -0.2164   1.0000
  Si   Si  -0.1766   0.2477   0.0212   1.0000
  Si   Si  -0.4403   0.4493  -0.3290   1.0000
  Si   Si   0.1252   0.2796   0.3562   1.0000
  Si   Si  -0.4493   0.0762   0.2823   1.0000
  Si   Si  -0.4715  -0.1464  -0.2714   1.0000
  Si   Si   0.1294  -0.0791  -0.3676   1.0000
  Si   Si   0.2169  -0.3996   0.1347   1.0000
data_findsym-STRUC-24
                                        
_symmetry_space_group_name_H-M 'P -1'   
_symmetry_Int_Tables_number 2           
                                        
_cell_length_a       6.29600            
_cell_length_b       5.05400            
_cell_length_c       4.67600            
_cell_angle_alpha   89.93100            
_cell_angle_beta   111.31200            
_cell_angle_gamma   94.24300            
                                        
loop_                                   
_atom_site_label                        
_atom_site_type_symbol                  
_atom_site_fract_x                      
_atom_site_fract_y                      
_atom_site_fract_z                      
_atom_site_occupancy                    
  Si   Si   0.2183  -0.2436   0.1141   1.0000
  Si   Si   0.2106   0.2554   0.1129   1.0000
  Si   Si   0.3567   0.2462  -0.3157   1.0000
  Si   Si   0.3656  -0.2534  -0.3138   1.0000
data_findsym-STRUC-25
                                        
_symmetry_space_group_name_H-M 'C 2/m 2/m 2/a'
_symmetry_Int_Tables_number 67          
                                        
_cell_length_a       9.48027            
_cell_length_b       4.92300            
_cell_length_c       2.58350            
_cell_angle_alpha   90.00000            
_cell_angle_beta    90.00000            
_cell_angle_gamma   90.00000            
                                        
loop_                                   
_atom_site_label                        
_atom_site_type_symbol                  
_atom_site_fract_x                      
_atom_site_fract_y                      
_atom_site_fract_z                      
_atom_site_occupancy                    
  Si   Si   0.2500   0.2500   0.0000   1.0000
  Si   Si   0.0000   0.2500  -0.4806   1.0000
data_findsym-STRUC-26
                                        
_symmetry_space_group_name_H-M 'F m m 2'
_symmetry_Int_Tables_number 42          
                                        
_cell_length_a       8.85227            
_cell_length_b       4.89600            
_cell_length_c       5.56000            
_cell_angle_alpha   90.00000            
_cell_angle_beta    90.00000            
_cell_angle_gamma   90.00000            
                                        
loop_                                   
_atom_site_label                        
_atom_site_type_symbol                  
_atom_site_fract_x                      
_atom_site_fract_y                      
_atom_site_fract_z                      
_atom_site_occupancy                    
  Si   Si  -0.2293   0.0000   0.1353   1.0000
  Si   Si   0.0000   0.0000   0.3973   1.0000
  Si   Si   0.0000   0.0000  -0.1500   1.0000
data_findsym-STRUC-27
_symmetry_space_group_name_H-M "P 1" 
_symmetry_Int_Tables_number 1

_cell_length_a  5.107
_cell_length_b  5.877
_cell_length_c  4.935
_cell_angle_alpha 114.208
_cell_angle_beta  89.990
_cell_angle_gamma 66.223

loop_
_atom_site_label
_atom_site_type_symbol
_atom_site_fract_x
_atom_site_fract_y
_atom_site_fract_z
__atom_site_occupancy
data_findsym-STRUC-28
                                        
_symmetry_space_group_name_H-M 'I 21/m 21/m 21/a'
_symmetry_Int_Tables_number 74          
                                        
_cell_length_a       4.32300            
_cell_length_b       4.97000            
_cell_length_c       2.86800            
_cell_angle_alpha   90.00000            
_cell_angle_beta    90.00000            
_cell_angle_gamma   90.00000            
                                        
loop_                                   
_atom_site_label                        
_atom_site_type_symbol                  
_atom_site_fract_x                      
_atom_site_fract_y                      
_atom_site_fract_z                      
_atom_site_occupancy                    
  Si   Si   0.0000   0.2500  -0.4903   1.0000
data_findsym-STRUC-29
                                        
_symmetry_space_group_name_H-M 'P 1'    
_symmetry_Int_Tables_number 1           
                                        
_cell_length_a       3.86300            
_cell_length_b       6.52700            
_cell_length_c       6.11700            
_cell_angle_alpha   66.70100            
_cell_angle_beta    98.53400            
_cell_angle_gamma   93.06400            
                                        
loop_                                   
_atom_site_label                        
_atom_site_type_symbol                  
_atom_site_fract_x                      
_atom_site_fract_y                      
_atom_site_fract_z                      
_atom_site_occupancy                    
  Si   Si   0.3747  -0.2130  -0.1649   1.0000
  Si   Si   0.3568   0.3525  -0.2853   1.0000
  Si   Si  -0.1621  -0.4278  -0.4461   1.0000
  Si   Si  -0.0664  -0.1100   0.0301   1.0000
  Si   Si  -0.2080  -0.0646  -0.4538   1.0000
  Si   Si   0.4379   0.0813   0.1224   1.0000
  Si   Si   0.1899   0.2405   0.3757   1.0000
  Si   Si  -0.2828  -0.4869   0.1823   1.0000
data_findsym-STRUC-30
_symmetry_space_group_name_H-M "P 1" 
_symmetry_Int_Tables_number 1

_cell_length_a  5.849
_cell_length_b  4.975
_cell_length_c  5.169
_cell_angle_alpha 90.114
_cell_angle_beta  114.826
_cell_angle_gamma 115.055

loop_
_atom_site_label
_atom_site_type_symbol
_atom_site_fract_x
_atom_site_fract_y
_atom_site_fract_z
__atom_site_occupancy
data_findsym-STRUC-31
                                        
_symmetry_space_group_name_H-M 'C 1 2/m 1'
_symmetry_Int_Tables_number 12          
                                        
_cell_length_a       5.73530            
_cell_length_b       4.33300            
_cell_length_c       5.73500            
_cell_angle_alpha   90.00000            
_cell_angle_beta    60.00172            
_cell_angle_gamma   90.00000            
                                        
loop_                                   
_atom_site_label                        
_atom_site_type_symbol                  
_atom_site_fract_x                      
_atom_site_fract_y                      
_atom_site_fract_z                      
_atom_site_occupancy                    
  Si   Si   0.2500   0.0000  -0.3649   1.0000
data_findsym-STRUC-32
_symmetry_space_group_name_H-M "P 1" 
_symmetry_Int_Tables_number 1

_cell_length_a  8.069
_cell_length_b  4.828
_cell_length_c  4.880
_cell_angle_alpha 69.159
_cell_angle_beta  99.658
_cell_angle_gamma 100.035

loop_
_atom_site_label
_atom_site_type_symbol
_atom_site_fract_x
_atom_site_fract_y
_atom_site_fract_z
__atom_site_occupancy
data_findsym-STRUC-33
                                        
_symmetry_space_group_name_H-M 'C 1 2 1'
_symmetry_Int_Tables_number 5           
                                        
_cell_length_a       5.11800            
_cell_length_b      10.16515            
_cell_length_c       5.15600            
_cell_angle_alpha   90.00000            
_cell_angle_beta   115.04900            
_cell_angle_gamma   90.00000            
                                        
loop_                                   
_atom_site_label                        
_atom_site_type_symbol                  
_atom_site_fract_x                      
_atom_site_fract_y                      
_atom_site_fract_z                      
_atom_site_occupancy                    
  Si   Si  -0.2317   0.0273  -0.2535   1.0000
  Si   Si  -0.2701   0.0267   0.2402   1.0000
  Si   Si   0.2583   0.2768   0.2691   1.0000
  Si   Si  -0.2479   0.2770   0.2331   1.0000
data_findsym-STRUC-34
                                        
_symmetry_space_group_name_H-M 'C 1 c 1'
_symmetry_Int_Tables_number 9           
                                        
_cell_length_a       8.81462            
_cell_length_b       5.62224            
_cell_length_c       5.61000            
_cell_angle_alpha   90.00000            
_cell_angle_beta   115.71999            
_cell_angle_gamma   90.00000            
                                        
loop_                                   
_atom_site_label                        
_atom_site_type_symbol                  
_atom_site_fract_x                      
_atom_site_fract_y                      
_atom_site_fract_z                      
_atom_site_occupancy                    
  Si   Si   0.2141   0.1077   0.1725   1.0000
  Si   Si   0.3141   0.4995   0.3642   1.0000
  Si   Si   0.4546   0.1474  -0.2910   1.0000
  Si   Si   0.0619   0.2397  -0.2971   1.0000
data_findsym-STRUC-35
                                        
_symmetry_space_group_name_H-M 'P 1'    
_symmetry_Int_Tables_number 1           
                                        
_cell_length_a       3.77000            
_cell_length_b       6.45300            
_cell_length_c       6.16800            
_cell_angle_alpha  112.83600            
_cell_angle_beta    97.56900            
_cell_angle_gamma   86.67100            
                                        
loop_                                   
_atom_site_label                        
_atom_site_type_symbol                  
_atom_site_fract_x                      
_atom_site_fract_y                      
_atom_site_fract_z                      
_atom_site_occupancy                    
  Si   Si  -0.0659   0.1873  -0.3741   1.0000
  Si   Si   0.0730  -0.1852   0.3999   1.0000
  Si   Si   0.4695  -0.2030   0.1019   1.0000
  Si   Si  -0.4516  -0.2168  -0.2967   1.0000
  Si   Si   0.4863   0.2240   0.2988   1.0000
  Si   Si  -0.4943   0.2071  -0.1072   1.0000
  Si   Si  -0.0347  -0.4827   0.0051   1.0000
  Si   Si   0.0028   0.4879   0.4853   1.0000
data_findsym-STRUC-36
                                        
_symmetry_space_group_name_H-M 'P 1'    
_symmetry_Int_Tables_number 1           
                                        
_cell_length_a       6.49400            
_cell_length_b       5.79800            
_cell_length_c       3.97000            
_cell_angle_alpha  108.89500            
_cell_angle_beta    90.02200            
_cell_angle_gamma   79.17800            
                                        
loop_                                   
_atom_site_label                        
_atom_site_type_symbol                  
_atom_site_fract_x                      
_atom_site_fract_y                      
_atom_site_fract_z                      
_atom_site_occupancy                    
  Si   Si   0.1648  -0.1941  -0.1576   1.0000
  Si   Si  -0.2451  -0.3222  -0.1897   1.0000
  Si   Si   0.4447   0.2975   0.1167   1.0000
  Si   Si   0.0969  -0.4224   0.2377   1.0000
  Si   Si  -0.1749   0.0961   0.0319   1.0000
  Si   Si   0.3346   0.1150  -0.4693   1.0000
  Si   Si  -0.4567  -0.3000   0.3209   1.0000
  Si   Si  -0.0446   0.2550  -0.3930   1.0000
data_findsym-STRUC-37
                                        
_symmetry_space_group_name_H-M 'P -1'   
_symmetry_Int_Tables_number 2           
                                        
_cell_length_a       6.09500            
_cell_length_b       5.83400            
_cell_length_c       3.75700            
_cell_angle_alpha  100.32900            
_cell_angle_beta    83.25400            
_cell_angle_gamma   77.05100            
                                        
loop_                                   
_atom_site_label                        
_atom_site_type_symbol                  
_atom_site_fract_x                      
_atom_site_fract_y                      
_atom_site_fract_z                      
_atom_site_occupancy                    
  Si   Si  -0.1629  -0.3707  -0.2788   1.0000
  Si   Si  -0.4859  -0.2283   0.4229   1.0000
  Si   Si   0.1221   0.0816  -0.2666   1.0000
  Si   Si   0.2746  -0.3146  -0.0434   1.0000
data_findsym-STRUC-38
                                        
_symmetry_space_group_name_H-M 'P 1 2/m 1'
_symmetry_Int_Tables_number 10          
                                        
_cell_length_a       2.63935            
_cell_length_b       2.47700            
_cell_length_c       4.63818            
_cell_angle_alpha   90.00000            
_cell_angle_beta    88.73413            
_cell_angle_gamma   90.00000            
                                        
loop_                                   
_atom_site_label                        
_atom_site_type_symbol                  
_atom_site_fract_x                      
_atom_site_fract_y                      
_atom_site_fract_z                      
_atom_site_occupancy                    
  Si   Si   0.2324   0.0000  -0.2513   1.0000
data_findsym-STRUC-39
                                        
_symmetry_space_group_name_H-M 'C 2/m 2/m 2/m'
_symmetry_Int_Tables_number 65          
                                        
_cell_length_a       9.22934            
_cell_length_b       9.48742            
_cell_length_c       3.91900            
_cell_angle_alpha   90.00000            
_cell_angle_beta    90.00000            
_cell_angle_gamma   90.00000            
                                        
loop_                                   
_atom_site_label                        
_atom_site_type_symbol                  
_atom_site_fract_x                      
_atom_site_fract_y                      
_atom_site_fract_z                      
_atom_site_occupancy                    
  Si   Si   0.0000  -0.1819   0.0000   1.0000
  Si   Si   0.1789   0.0000   0.0000   1.0000
  Si   Si   0.0000  -0.3191   0.5000   1.0000
  Si   Si   0.3200   0.0000   0.5000   1.0000
data_findsym-STRUC-40
                                        
_symmetry_space_group_name_H-M 'P -1'   
_symmetry_Int_Tables_number 2           
                                        
_cell_length_a       4.34600            
_cell_length_b       6.17200            
_cell_length_c       5.68000            
_cell_angle_alpha   98.72900            
_cell_angle_beta    78.90700            
_cell_angle_gamma   86.24000            
                                        
loop_                                   
_atom_site_label                        
_atom_site_type_symbol                  
_atom_site_fract_x                      
_atom_site_fract_y                      
_atom_site_fract_z                      
_atom_site_occupancy                    
  Si   Si  -0.3147  -0.4119  -0.3995   1.0000
  Si   Si   0.1562  -0.3889   0.1084   1.0000
  Si   Si  -0.3632   0.1112   0.1249   1.0000
  Si   Si   0.1669   0.0969  -0.3897   1.0000
data_findsym-STRUC-41
                                        
_symmetry_space_group_name_H-M 'P 1 21/m 1'
_symmetry_Int_Tables_number 11          
                                        
_cell_length_a       5.25300            
_cell_length_b       4.92300            
_cell_length_c       5.34000            
_cell_angle_alpha   90.00000            
_cell_angle_beta    61.34400            
_cell_angle_gamma   90.00000            
                                        
loop_                                   
_atom_site_label                        
_atom_site_type_symbol                  
_atom_site_fract_x                      
_atom_site_fract_y                      
_atom_site_fract_z                      
_atom_site_occupancy                    
  Si   Si  -0.0200   0.2500   0.0080   1.0000
  Si   Si   0.0176   0.2500  -0.4672   1.0000
  Si   Si  -0.4589   0.2500   0.4708   1.0000
  Si   Si   0.4565   0.2500  -0.0115   1.0000
data_findsym-STRUC-42
                                        
_symmetry_space_group_name_H-M 'P 1'    
_symmetry_Int_Tables_number 1           
                                        
_cell_length_a       5.14400            
_cell_length_b       5.72600            
_cell_length_c       5.12600            
_cell_angle_alpha  102.50300            
_cell_angle_beta    63.88800            
_cell_angle_gamma  116.40000            
                                        
loop_                                   
_atom_site_label                        
_atom_site_type_symbol                  
_atom_site_fract_x                      
_atom_site_fract_y                      
_atom_site_fract_z                      
_atom_site_occupancy                    
  Si   Si  -0.2890  -0.0517   0.0074   1.0000
  Si   Si   0.2196  -0.0533  -0.0101   1.0000
  Si   Si  -0.0265   0.4474   0.4786   1.0000
  Si   Si   0.4757   0.4464  -0.4881   1.0000
  Si   Si  -0.2699  -0.0523   0.4961   1.0000
  Si   Si   0.2235  -0.0522   0.4959   1.0000
  Si   Si   0.4608   0.4478   0.0231   1.0000
  Si   Si  -0.0237   0.4474  -0.0304   1.0000
data_findsym-STRUC-43
                                        
_symmetry_space_group_name_H-M 'P 1'    
_symmetry_Int_Tables_number 1           
                                        
_cell_length_a       3.89800            
_cell_length_b       6.57900            
_cell_length_c       6.25700            
_cell_angle_alpha   95.95200            
_cell_angle_beta    77.83400            
_cell_angle_gamma   74.02100            
                                        
loop_                                   
_atom_site_label                        
_atom_site_type_symbol                  
_atom_site_fract_x                      
_atom_site_fract_y                      
_atom_site_fract_z                      
_atom_site_occupancy                    
  Si   Si   0.4058  -0.2402  -0.3077   1.0000
  Si   Si  -0.3968   0.0223   0.1941   1.0000
  Si   Si  -0.3338   0.3400  -0.2921   1.0000
  Si   Si  -0.0344   0.2328   0.3037   1.0000
  Si   Si  -0.2308  -0.0279  -0.2024   1.0000
  Si   Si  -0.3049  -0.3410   0.2930   1.0000
  Si   Si   0.2870  -0.3435   0.0535   1.0000
  Si   Si   0.0643   0.3588  -0.0469   1.0000
data_findsym-STRUC-44
                                        
_symmetry_space_group_name_H-M 'P -1'   
_symmetry_Int_Tables_number 2           
                                        
_cell_length_a       3.08600            
_cell_length_b       6.49500            
_cell_length_c       7.98300            
_cell_angle_alpha   66.38700            
_cell_angle_beta    86.55100            
_cell_angle_gamma   84.66000            
                                        
loop_                                   
_atom_site_label                        
_atom_site_type_symbol                  
_atom_site_fract_x                      
_atom_site_fract_y                      
_atom_site_fract_z                      
_atom_site_occupancy                    
  Si   Si   0.2854  -0.2357   0.3660   1.0000
  Si   Si  -0.2465  -0.3996  -0.3698   1.0000
  Si   Si   0.1585  -0.0322  -0.1289   1.0000
  Si   Si   0.2705   0.3488   0.0951   1.0000
data_findsym-STRUC-45
                                        
_symmetry_space_group_name_H-M 'P -1'   
_symmetry_Int_Tables_number 2           
                                        
_cell_length_a       2.62664            
_cell_length_b       3.54812            
_cell_length_c       3.63283            
_cell_angle_alpha   86.69012            
_cell_angle_beta   108.56624            
_cell_angle_gamma  107.36064            
                                        
loop_                                   
_atom_site_label                        
_atom_site_type_symbol                  
_atom_site_fract_x                      
_atom_site_fract_y                      
_atom_site_fract_z                      
_atom_site_occupancy                    
  Si   Si   0.0000   0.5000   0.0000   1.0000
data_findsym-STRUC-46
                                        
_symmetry_space_group_name_H-M 'C 1 2/c 1'
_symmetry_Int_Tables_number 15          
                                        
_cell_length_a       7.27507            
_cell_length_b       7.04339            
_cell_length_c       5.85200            
_cell_angle_alpha   90.00000            
_cell_angle_beta   121.52496            
_cell_angle_gamma   90.00000            
                                        
loop_                                   
_atom_site_label                        
_atom_site_type_symbol                  
_atom_site_fract_x                      
_atom_site_fract_y                      
_atom_site_fract_z                      
_atom_site_occupancy                    
  Si   Si   0.0000   0.1298   0.2500   1.0000
data_findsym-STRUC-47
                                        
_symmetry_space_group_name_H-M 'C 1 2 1'
_symmetry_Int_Tables_number 5           
                                        
_cell_length_a      18.47313            
_cell_length_b       4.04200            
_cell_length_c       4.13400            
_cell_angle_alpha   90.00000            
_cell_angle_beta   102.70148            
_cell_angle_gamma   90.00000            
                                        
loop_                                   
_atom_site_label                        
_atom_site_type_symbol                  
_atom_site_fract_x                      
_atom_site_fract_y                      
_atom_site_fract_z                      
_atom_site_occupancy                    
  Si   Si  -0.1292   0.0866  -0.2302   1.0000
  Si   Si   0.3740   0.0832   0.4716   1.0000
  Si   Si   0.2517   0.0970   0.1472   1.0000
  Si   Si   0.4621   0.3519   0.2129   1.0000
data_findsym-STRUC-48
_symmetry_space_group_name_H-M "P 1" 
_symmetry_Int_Tables_number 1

_cell_length_a  5.169
_cell_length_b  4.971
_cell_length_c  5.849
_cell_angle_alpha 65.031
_cell_angle_beta  65.160
_cell_angle_gamma 90.197

loop_
_atom_site_label
_atom_site_type_symbol
_atom_site_fract_x
_atom_site_fract_y
_atom_site_fract_z
__atom_site_occupancy
data_findsym-STRUC-49
                                        
_symmetry_space_group_name_H-M 'P 1'    
_symmetry_Int_Tables_number 1           
                                        
_cell_length_a       6.28100            
_cell_length_b       3.83300            
_cell_length_c       5.92100            
_cell_angle_alpha   79.96700            
_cell_angle_beta    84.15300            
_cell_angle_gamma   84.05400            
                                        
loop_                                   
_atom_site_label                        
_atom_site_type_symbol                  
_atom_site_fract_x                      
_atom_site_fract_y                      
_atom_site_fract_z                      
_atom_site_occupancy                    
  Si   Si   0.1792   0.1494  -0.4266   1.0000
  Si   Si   0.2345  -0.3009   0.3125   1.0000
  Si   Si  -0.3634  -0.4121   0.3001   1.0000
  Si   Si  -0.0535   0.1013  -0.0834   1.0000
  Si   Si  -0.4631   0.2080  -0.3153   1.0000
  Si   Si   0.4136   0.2371   0.0906   1.0000
  Si   Si  -0.1314   0.0377   0.3379   1.0000
  Si   Si  -0.2875  -0.3476  -0.1366   1.0000
data_findsym-STRUC-50
                                        
_symmetry_space_group_name_H-M 'C 1 2/m 1'
_symmetry_Int_Tables_number 12          
                                        
_cell_length_a       5.56400            
_cell_length_b       4.88600            
_cell_length_c       5.22215            
_cell_angle_alpha   90.00000            
_cell_angle_beta    57.93443            
_cell_angle_gamma   90.00000            
                                        
loop_                                   
_atom_site_label                        
_atom_site_type_symbol                  
_atom_site_fract_x                      
_atom_site_fract_y                      
_atom_site_fract_z                      
_atom_site_occupancy                    
  Si   Si  -0.2601   0.0000  -0.0257   1.0000
  Si   Si  -0.2511   0.0000   0.4641   1.0000
data_findsym-STRUC-51
                                        
_symmetry_space_group_name_H-M 'P 1'    
_symmetry_Int_Tables_number 1           
                                        
_cell_length_a       4.96200            
_cell_length_b       5.91000            
_cell_length_c       5.18400            
_cell_angle_alpha  113.94900            
_cell_angle_beta    73.70200            
_cell_angle_gamma  113.65100            
                                        
loop_                                   
_atom_site_label                        
_atom_site_type_symbol                  
_atom_site_fract_x                      
_atom_site_fract_y                      
_atom_site_fract_z                      
_atom_site_occupancy                    
  Si   Si  -0.3194   0.4283   0.1230   1.0000
  Si   Si   0.2818   0.2646  -0.2941   1.0000
  Si   Si   0.0960  -0.1310  -0.1700   1.0000
  Si   Si  -0.1565  -0.0726   0.3156   1.0000
  Si   Si   0.4332   0.0093   0.2189   1.0000
  Si   Si  -0.1253   0.3853  -0.3764   1.0000
  Si   Si  -0.4494  -0.2843  -0.3297   1.0000
  Si   Si   0.2160  -0.4429   0.2441   1.0000
data_findsym-STRUC-52
_symmetry_space_group_name_H-M "P 1" 
_symmetry_Int_Tables_number 1

_cell_length_a  3.640
_cell_length_b  6.201
_cell_length_c  6.293
_cell_angle_alpha 87.054
_cell_angle_beta  87.052
_cell_angle_gamma 87.491

loop_
_atom_site_label
_atom_site_type_symbol
_atom_site_fract_x
_atom_site_fract_y
_atom_site_fract_z
__atom_site_occupancy
data_findsym-STRUC-53
                                        
_symmetry_space_group_name_H-M 'P -1'   
_symmetry_Int_Tables_number 2           
                                        
_cell_length_a       2.47150            
_cell_length_b       2.49300            
_cell_length_c      10.16200            
_cell_angle_alpha   85.19100            
_cell_angle_beta    89.65100            
_cell_angle_gamma   90.02500            
                                        
loop_                                   
_atom_site_label                        
_atom_site_type_symbol                  
_atom_site_fract_x                      
_atom_site_fract_y                      
_atom_site_fract_z                      
_atom_site_occupancy                    
  Si   Si  -0.0027   0.2399  -0.3780   1.0000
  Si   Si  -0.0214  -0.4886  -0.1298   1.0000
data_findsym-STRUC-54
                                        
_symmetry_space_group_name_H-M 'P 1 21/m 1'
_symmetry_Int_Tables_number 11          
                                        
_cell_length_a       3.86300            
_cell_length_b       6.10900            
_cell_length_c       6.56600            
_cell_angle_alpha   90.00000            
_cell_angle_beta   103.18900            
_cell_angle_gamma   90.00000            
                                        
loop_                                   
_atom_site_label                        
_atom_site_type_symbol                  
_atom_site_fract_x                      
_atom_site_fract_y                      
_atom_site_fract_z                      
_atom_site_occupancy                    
  Si   Si   0.3109  -0.0585   0.1362   1.0000
  Si   Si  -0.1179   0.0580   0.3236   1.0000
data_findsym-STRUC-55
                                        
_symmetry_space_group_name_H-M 'C 1 2/m 1'
_symmetry_Int_Tables_number 12          
                                        
_cell_length_a       5.46008            
_cell_length_b       4.94900            
_cell_length_c       5.13500            
_cell_angle_alpha   90.00000            
_cell_angle_beta    61.21775            
_cell_angle_gamma   90.00000            
                                        
loop_                                   
_atom_site_label                        
_atom_site_type_symbol                  
_atom_site_fract_x                      
_atom_site_fract_y                      
_atom_site_fract_z                      
_atom_site_occupancy                    
  Si   Si  -0.2448   0.0000  -0.4546   1.0000
  Si   Si  -0.2572   0.0000   0.0589   1.0000
data_findsym-STRUC-56
                                        
_symmetry_space_group_name_H-M 'P 1'    
_symmetry_Int_Tables_number 1           
                                        
_cell_length_a       5.84700            
_cell_length_b       6.01400            
_cell_length_c       3.74700            
_cell_angle_alpha   96.24500            
_cell_angle_beta    99.79600            
_cell_angle_gamma   83.47700            
                                        
loop_                                   
_atom_site_label                        
_atom_site_type_symbol                  
_atom_site_fract_x                      
_atom_site_fract_y                      
_atom_site_fract_z                      
_atom_site_occupancy                    
  Si   Si  -0.3550   0.0988  -0.4017   1.0000
  Si   Si   0.1338   0.2218   0.3157   1.0000
  Si   Si   0.2179   0.4971  -0.1888   1.0000
  Si   Si  -0.1798  -0.2765  -0.0823   1.0000
  Si   Si   0.4583  -0.3792   0.3846   1.0000
  Si   Si  -0.2561   0.3636   0.1027   1.0000
  Si   Si   0.0391  -0.1335   0.4906   1.0000
  Si   Si   0.4106  -0.0387   0.0239   1.0000
data_findsym-STRUC-57
                                        
_symmetry_space_group_name_H-M 'C 2/m 2/m 2/m'
_symmetry_Int_Tables_number 65          
                                        
_cell_length_a       9.22934            
_cell_length_b       9.48742            
_cell_length_c       3.91900            
_cell_angle_alpha   90.00000            
_cell_angle_beta    90.00000            
_cell_angle_gamma   90.00000            
                                        
loop_                                   
_atom_site_label                        
_atom_site_type_symbol                  
_atom_site_fract_x                      
_atom_site_fract_y                      
_atom_site_fract_z                      
_atom_site_occupancy                    
  Si   Si   0.0000  -0.1819   0.0000   1.0000
  Si   Si   0.1789   0.0000   0.0000   1.0000
  Si   Si   0.0000  -0.3191   0.5000   1.0000
  Si   Si   0.3200   0.0000   0.5000   1.0000
data_findsym-STRUC-58
                                        
_symmetry_space_group_name_H-M 'P 1 21/m 1'
_symmetry_Int_Tables_number 11          
                                        
_cell_length_a       5.25300            
_cell_length_b       4.92300            
_cell_length_c       5.34000            
_cell_angle_alpha   90.00000            
_cell_angle_beta    61.34400            
_cell_angle_gamma   90.00000            
                                        
loop_                                   
_atom_site_label                        
_atom_site_type_symbol                  
_atom_site_fract_x                      
_atom_site_fract_y                      
_atom_site_fract_z                      
_atom_site_occupancy                    
  Si   Si  -0.0200   0.2500   0.0080   1.0000
  Si   Si   0.0176   0.2500  -0.4672   1.0000
  Si   Si  -0.4589   0.2500   0.4708   1.0000
  Si   Si   0.4565   0.2500  -0.0115   1.0000
data_findsym-STRUC-59
                                        
_symmetry_space_group_name_H-M 'P 1'    
_symmetry_Int_Tables_number 1           
                                        
_cell_length_a       3.08100            
_cell_length_b       7.57400            
_cell_length_c       7.63900            
_cell_angle_alpha   73.69500            
_cell_angle_beta    93.38900            
_cell_angle_gamma   89.94700            
                                        
loop_                                   
_atom_site_label                        
_atom_site_type_symbol                  
_atom_site_fract_x                      
_atom_site_fract_y                      
_atom_site_fract_z                      
_atom_site_occupancy                    
  Si   Si   0.3660   0.0252  -0.1807   1.0000
  Si   Si   0.3105   0.4974  -0.4534   1.0000
  Si   Si   0.3626   0.3213  -0.1344   1.0000
  Si   Si  -0.1263   0.4374   0.0576   1.0000
  Si   Si  -0.1707   0.0487  -0.4279   1.0000
  Si   Si  -0.1745  -0.2783  -0.3787   1.0000
  Si   Si  -0.2072   0.3518   0.3804   1.0000
  Si   Si   0.3747  -0.3078  -0.1108   1.0000
data_findsym-STRUC-60
                                        
_symmetry_space_group_name_H-M 'P 1'    
_symmetry_Int_Tables_number 1           
                                        
_cell_length_a       4.98800            
_cell_length_b       7.31500            
_cell_length_c       3.79500            
_cell_angle_alpha  101.41400            
_cell_angle_beta    93.58700            
_cell_angle_gamma   92.51900            
                                        
loop_                                   
_atom_site_label                        
_atom_site_type_symbol                  
_atom_site_fract_x                      
_atom_site_fract_y                      
_atom_site_fract_z                      
_atom_site_occupancy                    
  Si   Si   0.2427   0.0508   0.1646   1.0000
  Si   Si  -0.1684  -0.1018  -0.2111   1.0000
  Si   Si   0.2539  -0.4612   0.2272   1.0000
  Si   Si   0.2032   0.3350  -0.3629   1.0000
  Si   Si   0.3213  -0.1522  -0.4331   1.0000
  Si   Si  -0.3741   0.1974  -0.0823   1.0000
  Si   Si  -0.2144  -0.3091   0.2077   1.0000
  Si   Si  -0.2641   0.4132   0.4755   1.0000
data_findsym-STRUC-61
                                        
_symmetry_space_group_name_H-M 'P 1'    
_symmetry_Int_Tables_number 1           
                                        
_cell_length_a       5.14400            
_cell_length_b       5.72600            
_cell_length_c       5.12600            
_cell_angle_alpha  102.50300            
_cell_angle_beta    63.88800            
_cell_angle_gamma  116.40000            
                                        
loop_                                   
_atom_site_label                        
_atom_site_type_symbol                  
_atom_site_fract_x                      
_atom_site_fract_y                      
_atom_site_fract_z                      
_atom_site_occupancy                    
  Si   Si  -0.2890  -0.0517   0.0074   1.0000
  Si   Si   0.2196  -0.0533  -0.0101   1.0000
  Si   Si  -0.0265   0.4474   0.4786   1.0000
  Si   Si   0.4757   0.4464  -0.4881   1.0000
  Si   Si  -0.2699  -0.0523   0.4961   1.0000
  Si   Si   0.2235  -0.0522   0.4959   1.0000
  Si   Si   0.4608   0.4478   0.0231   1.0000
  Si   Si  -0.0237   0.4474  -0.0304   1.0000
data_findsym-STRUC-62
                                        
_symmetry_space_group_name_H-M 'P -1'   
_symmetry_Int_Tables_number 2           
                                        
_cell_length_a       5.27100            
_cell_length_b       7.62600            
_cell_length_c       3.90800            
_cell_angle_alpha   80.00600            
_cell_angle_beta    90.59400            
_cell_angle_gamma   80.98100            
                                        
loop_                                   
_atom_site_label                        
_atom_site_type_symbol                  
_atom_site_fract_x                      
_atom_site_fract_y                      
_atom_site_fract_z                      
_atom_site_occupancy                    
  Si   Si   0.2894  -0.2162   0.0984   1.0000
  Si   Si   0.4292   0.2347   0.3700   1.0000
  Si   Si  -0.1086  -0.0644  -0.2622   1.0000
  Si   Si  -0.1277   0.4939  -0.2506   1.0000
data_findsym-STRUC-63
                                        
_symmetry_space_group_name_H-M 'P 1'    
_symmetry_Int_Tables_number 1           
                                        
_cell_length_a       4.34000            
_cell_length_b       9.57900            
_cell_length_c       4.01100            
_cell_angle_alpha  101.84300            
_cell_angle_beta    81.24200            
_cell_angle_gamma   94.46500            
                                        
loop_                                   
_atom_site_label                        
_atom_site_type_symbol                  
_atom_site_fract_x                      
_atom_site_fract_y                      
_atom_site_fract_z                      
_atom_site_occupancy                    
  Si   Si   0.2564   0.1761  -0.2887   1.0000
  Si   Si  -0.4701  -0.2805   0.2240   1.0000
  Si   Si   0.0825   0.0382   0.1300   1.0000
  Si   Si  -0.2524   0.4007   0.3361   1.0000
  Si   Si   0.0433   0.4064  -0.2114   1.0000
  Si   Si   0.4232  -0.4120  -0.3201   1.0000
  Si   Si  -0.3911   0.1525   0.2038   1.0000
  Si   Si   0.0675  -0.2110   0.0555   1.0000
data_findsym-STRUC-64
                                        
_symmetry_space_group_name_H-M 'P -1'   
_symmetry_Int_Tables_number 2           
                                        
_cell_length_a       5.33900            
_cell_length_b       5.85100            
_cell_length_c       5.64800            
_cell_angle_alpha  114.57300            
_cell_angle_beta    64.75700            
_cell_angle_gamma   84.81200            
                                        
loop_                                   
_atom_site_label                        
_atom_site_type_symbol                  
_atom_site_fract_x                      
_atom_site_fract_y                      
_atom_site_fract_z                      
_atom_site_occupancy                    
  Si   Si  -0.4317   0.2857   0.0450   1.0000
  Si   Si   0.1401  -0.3312   0.3852   1.0000
  Si   Si  -0.2394  -0.3397   0.2594   1.0000
  Si   Si   0.2389  -0.0587  -0.2283   1.0000
data_findsym-STRUC-65
                                        
_symmetry_space_group_name_H-M 'P 1'    
_symmetry_Int_Tables_number 1           
                                        
_cell_length_a       4.12600            
_cell_length_b       5.84900            
_cell_length_c       6.13700            
_cell_angle_alpha  117.27200            
_cell_angle_beta    97.53700            
_cell_angle_gamma   80.70700            
                                        
loop_                                   
_atom_site_label                        
_atom_site_type_symbol                  
_atom_site_fract_x                      
_atom_site_fract_y                      
_atom_site_fract_z                      
_atom_site_occupancy                    
  Si   Si   0.1685  -0.1130  -0.0120   1.0000
  Si   Si  -0.3561   0.1197   0.1586   1.0000
  Si   Si   0.2954  -0.4904   0.0703   1.0000
  Si   Si   0.3172   0.1855  -0.4468   1.0000
  Si   Si   0.2445  -0.2341  -0.4373   1.0000
  Si   Si  -0.2335   0.4777  -0.4536   1.0000
  Si   Si  -0.2584  -0.2187   0.3150   1.0000
  Si   Si  -0.1847   0.2867  -0.1501   1.0000
data_findsym-STRUC-66
                                        
_symmetry_space_group_name_H-M 'P 1'    
_symmetry_Int_Tables_number 1           
                                        
_cell_length_a       9.16600            
_cell_length_b       5.90600            
_cell_length_c       2.88800            
_cell_angle_alpha   91.30300            
_cell_angle_beta    90.38700            
_cell_angle_gamma   72.54400            
                                        
loop_                                   
_atom_site_label                        
_atom_site_type_symbol                  
_atom_site_fract_x                      
_atom_site_fract_y                      
_atom_site_fract_z                      
_atom_site_occupancy                    
  Si   Si  -0.3627  -0.1944  -0.0128   1.0000
  Si   Si   0.4347  -0.3684   0.0565   1.0000
  Si   Si   0.0496   0.2766   0.4944   1.0000
  Si   Si   0.1796  -0.4206  -0.0283   1.0000
  Si   Si  -0.1489  -0.3414   0.4870   1.0000
  Si   Si   0.0197  -0.1124   0.4823   1.0000
  Si   Si   0.4792   0.2055   0.0069   1.0000
  Si   Si   0.3189   0.0350   0.4958   1.0000
data_findsym-STRUC-67
                                        
_symmetry_space_group_name_H-M 'P -1'   
_symmetry_Int_Tables_number 2           
                                        
_cell_length_a       5.58400            
_cell_length_b       5.61400            
_cell_length_c       4.98300            
_cell_angle_alpha   80.96100            
_cell_angle_beta   110.77100            
_cell_angle_gamma  119.21700            
                                        
loop_                                   
_atom_site_label                        
_atom_site_type_symbol                  
_atom_site_fract_x                      
_atom_site_fract_y                      
_atom_site_fract_z                      
_atom_site_occupancy                    
  Si   Si  -0.4350  -0.2586   0.4093   1.0000
  Si   Si   0.1032  -0.2538   0.0508   1.0000
  Si   Si   0.3626   0.2580   0.0642   1.0000
  Si   Si   0.1653  -0.2520  -0.4226   1.0000
